STAAD SPACE
START JOB INFORMATION
ENGINEER DATE 28-Feb-22
END JOB INFORMATION
INPUT WIDTH 79
UNIT METER KN
JOINT COORDINATES
1 0 0 10; 2 0 0 0; 3 10 0 0; 4 10 0 10; 13 2.5 26 2.5; 14 7.5 26 2.5;
15 2.5 26 7.5; 16 7.5 26 7.5; 17 1.875 19.5 1.875; 18 1.25 13 1.25;
19 0.625 6.5 0.625; 20 1.875 19.5 8.125; 21 1.25 13 8.75; 22 0.625 6.5 9.375;
23 8.125 19.5 8.125; 24 8.75 13 8.75; 25 9.375 6.5 9.375; 26 8.125 19.5 1.875;
27 8.75 13 1.25; 28 9.375 6.5 0.625; 29 0.3125 3.25 0.3125;
30 0.3125 3.25 9.6875; 31 9.6875 3.25 9.6875; 32 9.6875 3.25 0.3125;
33 0.3125 3.25 5; 34 5 3.25 9.6875; 35 9.6875 3.25 5; 36 5 3.25 0.3125;
37 0.208333 2.16667 0.208333; 38 0.104167 1.08333 0.104167;
39 0.208333 2.16667 9.79167; 40 0.104167 1.08333 9.89583;
41 9.79167 2.16667 9.79167; 42 9.89583 1.08333 9.89583;
43 9.79167 2.16667 0.208333; 44 9.89583 1.08333 0.104167;
45 1.66667 1.08333 0.104167; 46 3.33333 2.16667 0.208333;
47 0.208333 2.16667 3.33333; 48 0.104167 1.08333 1.66667;
49 0.208333 2.16667 6.66667; 50 0.104167 1.08333 8.33333;
51 6.66667 2.16667 0.208333; 52 8.33333 1.08333 0.104167;
53 1.66667 1.08333 9.89583; 54 3.33333 2.16667 9.79167;
55 6.66667 2.16667 9.79167; 56 8.33333 1.08333 9.89583;
57 9.89583 1.08333 1.66667; 58 9.79167 2.16667 3.33333;
59 9.79167 2.16667 6.66667; 60 9.89583 1.08333 8.33333; 61 5 6.5 0.625;
62 9.375 6.5 5; 63 0.625 6.5 5; 64 5 6.5 9.375; 65 0.520833 5.41667 0.520833;
# ... 149 like lines cut
MEMBER INCIDENCES
16 14 241; 17 13 242; 18 15 243; 20 16 244; 21 13 245; 22 15 247; 23 16 249;
24 14 251; 25 17 181; 26 18 125; 27 19 65; 28 20 183; 29 21 127; 30 22 67;
31 23 185; 32 24 129; 33 25 69; 34 26 187; 35 27 131; 36 28 71; 37 17 189;
38 20 190; 39 23 191; 40 17 192; 41 18 93; 42 27 94; 43 24 95; 44 18 96;
45 19 61; 46 28 62; 47 19 63; 48 22 64; 49 29 37; 50 30 39; 51 31 41; 52 32 43;
53 29 33; 54 30 34; 55 31 35; 56 29 36; 57 33 30; 58 34 31; 59 35 32; 60 36 32;
61 2 45; 62 36 51; 63 33 47; 64 33 49; 65 1 53; 66 34 55; 67 3 57; 68 35 59;
69 37 38; 70 38 2; 71 39 40; 72 40 1; 73 41 42; 74 42 4; 75 43 44; 76 44 3;
77 45 46; 78 46 36; 79 38 45; 80 37 46; 81 37 45; 82 29 46; 83 47 48; 84 48 2;
85 38 48; 86 37 47; 87 47 29; 88 48 37; 89 49 50; 90 50 1; 91 40 50; 92 39 49;
93 30 49; 94 39 50; 95 51 52; 96 52 3; 97 53 54; 98 54 34; 99 55 56; 100 56 4;
101 57 58; 102 58 35; 103 59 60; 104 60 4; 105 41 55; 106 42 56; 107 31 55;
108 41 56; 109 54 39; 110 53 40; 111 54 30; 112 53 39; 113 59 41; 114 60 42;
115 60 41; 117 58 43; 118 57 44; 119 43 51; 120 44 52; 121 58 32; 122 57 43;
123 52 43; 124 51 32; 125 61 28; 126 62 25; 127 63 22; 128 64 25; 129 65 66;
130 66 29; 131 67 68; 132 68 30; 133 69 70; 134 70 31; 135 71 72; 136 72 32;
137 29 73; 138 63 75; 139 30 77; 140 64 79; 141 32 81; 142 31 83; 143 61 85;
144 29 87; 145 73 74; 146 74 63; 147 75 76; 148 76 30; 149 77 78; 150 78 64;
151 79 80; 152 80 31; 153 81 82; 154 82 62; 155 83 84; 156 84 62; 157 85 86;
158 86 32; 159 87 88; 160 88 61; 161 65 88; 162 66 87; 163 65 74; 164 66 73;
# ... 169 like lines cut
DEFINE MATERIAL START
ISOTROPIC STEEL
E 2.05e+008
POISSON 0.3
DENSITY 76.8195
ALPHA 1.2e-005
DAMP 0.03
TYPE STEEL
STRENGTH FY 253200 FU 407800 RY 1.5 RT 1.2
END DEFINE MATERIAL
MEMBER PROPERTY INDIAN
16 TO 18 20 TO 60 69 TO 76 125 TO 136 190 TO 205 222 TO 229 290 TO 297 345 -
346 TO 356 365 TO 372 421 TO 432 489 TO 493 495 TO 501 510 TO 517 550 TO 553 -
562 TO 569 616 TO 647 712 TO 743 808 TO 839 904 TO 919 987 989 990 -
992 TO 1000 1005 TO 1008 1011 1012 1015 TO 1025 1027 1029 1031 1041 TO 1049 -
1051 1053 1055 1065 TO 1075 1077 1079 1081 1083 1085 1099 TO 1109 1111 1113 -
1115 1117 1119 1133 TO 1141 1143 1145 1147 1157 TO 1165 1167 1169 -
1171 TABLE ST ISA200X200X25
61 TO 68 77 TO 115 117 TO 124 137 TO 164 166 TO 189 206 TO 221 230 TO 261 -
274 TO 289 298 TO 344 357 TO 364 373 TO 420 433 TO 488 502 TO 509 -
518 TO 549 554 TO 561 570 TO 613 648 TO 711 744 TO 807 840 TO 903 -
920 TO 945 947 TO 952 1009 1010 1013 1014 1026 1028 1030 1032 TO 1040 1050 -
1052 1054 1056 TO 1064 1076 1078 1080 1082 1084 1086 TO 1098 1110 1112 1114 -
1116 1118 1120 TO 1132 1142 1144 1146 1148 TO 1156 1166 1168 1170 -
1172 TO 1196 TABLE ST ISA75X75X10
CONSTANTS
MATERIAL STEEL ALL
SUPPORTS
1 TO 4 FIXED
DEFINE WIND LOAD
TYPE 1 WIND 1
INT 1.019 HEIG  50
EXP 1 JOINT 1 TO 4 13 TO 268 270 TO 409 426 TO 496
LOAD 1 LOADTYPE Wind  TITLE WX
WIND LOAD X 1 TYPE 1 YR 0 50
WIND LOAD -X 1 TYPE 1 YR 0 50
LOAD 2 LOADTYPE Wind  TITLE WZ
WIND LOAD Z 1 TYPE 1 YR 0 50
WIND LOAD -Z 1 TYPE 1 YR 0 50
LOAD 3 LOADTYPE Dead  TITLE DL
SELFWEIGHT Y -1 
MEMBER LOAD
1017 TO 1180 CON GY -0.5
PERFORM ANALYSIS
PERFORM ANALYSIS
PERFORM ANALYSIS
PERFORM ANALYSIS
PERFORM ANALYSIS
PERFORM ANALYSIS
PERFORM ANALYSIS
PERFORM ANALYSIS
FINISH
